<?xml version="1.0" encoding="utf-8"?>
<!DOCTYPE population SYSTEM "http://www.matsim.org/files/dtd/population_v6.dtd">

<population>



<!-- ====================================================================== -->

	<person id="p_0">
		<plan selected="yes">
			<activity type="home" x="20767.877758502364" y="153473.43523218992" end_time="07:28:12" >
			</activity>
			<leg mode="car">
			</leg>
			<activity type="work" x="47907.82608614758" y="132016.7168604321" end_time="17:34:04" >
			</activity>
			<leg mode="car">
			</leg>
			<activity type="home" x="20767.877758502364" y="153473.43523218992" >
			</activity>
		</plan>

	</person>

<!-- ====================================================================== -->

	<person id="p_1">
		<plan selected="yes">
			<activity type="home" x="73236.5141969078" y="148063.94904367282" end_time="08:27:36" >
			</activity>
			<leg mode="car">
			</leg>
			<activity type="work" x="63477.121706762846" y="133675.6865380656" end_time="20:11:22" >
			</activity>
			<leg mode="car">
			</leg>
			<activity type="home" x="73236.5141969078" y="148063.94904367282" >
			</activity>
		</plan>

	</person>

<!-- ====================================================================== -->

	<person id="p_10">
		<plan selected="yes">
			<activity type="home" x="73287.48898828111" y="140061.28468275495" end_time="06:24:41" >
			</activity>
			<leg mode="car">
			</leg>
			<activity type="work" x="53557.340368543344" y="148068.5045482654" end_time="22:11:10" >
			</activity>
			<leg mode="car">
			</leg>
			<activity type="home" x="73287.48898828111" y="140061.28468275495" >
			</activity>
		</plan>

	</person>

<!-- ====================================================================== -->

	<person id="p_100">
		<plan selected="yes">
			<activity type="home" x="51998.91501033194" y="151271.49150548322" end_time="06:41:48" >
			</activity>
			<leg mode="car">
			</leg>
			<activity type="work" x="68449.2742893988" y="117640.28760413473" end_time="16:30:07" >
			</activity>
			<leg mode="car">
			</leg>
			<activity type="home" x="51998.91501033194" y="151271.49150548322" >
			</activity>
		</plan>

	</person>

<!-- ====================================================================== -->

	<person id="p_1000">
		<plan selected="yes">
			<activity type="home" x="83488.2596985472" y="131551.03350633418" end_time="08:54:14" >
			</activity>
			<leg mode="car">
			</leg>
			<activity type="work" x="86360.71576729466" y="128307.26423324186" end_time="17:41:09" >
			</activity>
			<leg mode="car">
			</leg>
			<activity type="home" x="83488.2596985472" y="131551.03350633418" >
			</activity>
		</plan>

	</person>

<!-- ====================================================================== -->

	<person id="p_1001">
		<plan selected="yes">
			<activity type="home" x="25234.43091108471" y="144310.8950771426" end_time="08:41:06" >
			</activity>
			<leg mode="car">
			</leg>
			<activity type="work" x="29465.65695701327" y="131367.87852948153" end_time="22:11:55" >
			</activity>
			<leg mode="car">
			</leg>
			<activity type="home" x="25234.43091108471" y="144310.8950771426" >
			</activity>
		</plan>

	</person>

<!-- ====================================================================== -->

	<person id="p_1002">
		<plan selected="yes">
			<activity type="home" x="88271.09380798548" y="124384.33385101677" end_time="07:23:00" >
			</activity>
			<leg mode="car">
			</leg>
			<activity type="work" x="15957.620754624992" y="121054.96439734385" end_time="17:39:47" >
			</activity>
			<leg mode="car">
			</leg>
			<activity type="home" x="88271.09380798548" y="124384.33385101677" >
			</activity>
		</plan>

	</person>

<!-- ====================================================================== -->

	<person id="p_1003">
		<plan selected="yes">
			<activity type="home" x="73702.62231030896" y="116132.97422039272" end_time="07:02:04" >
			</activity>
			<leg mode="car">
			</leg>
			<activity type="work" x="79127.14193584338" y="109974.38175007791" end_time="15:31:21" >
			</activity>
			<leg mode="car">
			</leg>
			<activity type="home" x="73702.62231030896" y="116132.97422039272" >
			</activity>
		</plan>

	</person>

<!-- ====================================================================== -->

	<person id="p_1004">
		<plan selected="yes">
			<activity type="home" x="21616.722619912667" y="133767.55293498826" end_time="08:12:27" >
			</activity>
			<leg mode="car">
			</leg>
			<activity type="work" x="9030.371951623365" y="123168.03237872072" end_time="20:15:09" >
			</activity>
			<leg mode="car">
			</leg>
			<activity type="home" x="21616.722619912667" y="133767.55293498826" >
			</activity>
		</plan>

	</person>

<!-- ====================================================================== -->

	<person id="p_1005">
		<plan selected="yes">
			<activity type="home" x="31964.909389214023" y="131145.0199546533" end_time="08:24:29" >
			</activity>
			<leg mode="car">
			</leg>
			<activity type="work" x="27429.575211405056" y="144774.89381967168" end_time="20:32:05" >
			</activity>
			<leg mode="car">
			</leg>
			<activity type="home" x="31964.909389214023" y="131145.0199546533" >
			</activity>
		</plan>

	</person>

<!-- ====================================================================== -->

	<person id="p_1006">
		<plan selected="yes">
			<activity type="home" x="10268.01469693378" y="138105.76218054898" end_time="08:15:44" >
			</activity>
			<leg mode="car">
			</leg>
			<activity type="work" x="70501.06993000674" y="138822.58450598238" end_time="20:39:57" >
			</activity>
			<leg mode="car">
			</leg>
			<activity type="home" x="10268.01469693378" y="138105.76218054898" >
			</activity>
		</plan>

	</person>

<!-- ====================================================================== -->

	<person id="p_1007">
		<plan selected="yes">
			<activity type="home" x="79642.05421974619" y="125173.60252699202" end_time="09:34:25" >
			</activity>
			<leg mode="car">
			</leg>
			<activity type="work" x="28792.61926199087" y="142510.49420275047" end_time="23:29:59" >
			</activity>
			<leg mode="car">
			</leg>
			<activity type="home" x="79642.05421974619" y="125173.60252699202" >
			</activity>
		</plan>

	</person>

<!-- ====================================================================== -->

	<person id="p_1008">
		<plan selected="yes">
			<activity type="home" x="29041.01303768438" y="111921.98767940846" end_time="07:53:08" >
			</activity>
			<leg mode="car">
			</leg>
			<activity type="work" x="79432.26479695307" y="134579.95204685463" end_time="20:04:23" >
			</activity>
			<leg mode="car">
			</leg>
			<activity type="home" x="29041.01303768438" y="111921.98767940846" >
			</activity>
		</plan>

	</person>

<!-- ====================================================================== -->

	<person id="p_1009">
		<plan selected="yes">
			<activity type="home" x="32007.53899255878" y="129720.9628954877" end_time="06:37:42" >
			</activity>
			<leg mode="car">
			</leg>
			<activity type="work" x="81411.33905123165" y="126288.82978460833" end_time="17:01:49" >
			</activity>
			<leg mode="car">
			</leg>
			<activity type="home" x="32007.53899255878" y="129720.9628954877" >
			</activity>
		</plan>

	</person>

<!-- ====================================================================== -->

	<person id="p_101">
		<plan selected="yes">
			<activity type="home" x="66289.03687307172" y="111342.6445288623" end_time="07:41:58" >
			</activity>
			<leg mode="car">
			</leg>
			<activity type="work" x="10161.676211495957" y="144113.7387043503" end_time="11:54:19" >
			</activity>
			<leg mode="car">
			</leg>
			<activity type="home" x="66289.03687307172" y="111342.6445288623" >
			</activity>
		</plan>

	</person>

<!-- ====================================================================== -->

	<person id="p_1010">
		<plan selected="yes">
			<activity type="home" x="19093.016541938858" y="122742.97390398761" end_time="07:58:36" >
			</activity>
			<leg mode="car">
			</leg>
			<activity type="work" x="60789.27217601019" y="146425.12037407517" end_time="16:23:48" >
			</activity>
			<leg mode="car">
			</leg>
			<activity type="home" x="19093.016541938858" y="122742.97390398761" >
			</activity>
		</plan>

	</person>

<!-- ====================================================================== -->

	<person id="p_1011">
		<plan selected="yes">
			<activity type="home" x="39947.86633239394" y="149052.34664742445" end_time="09:23:06" >
			</activity>
			<leg mode="car">
			</leg>
			<activity type="work" x="64584.4106056593" y="146282.5942581609" end_time="16:18:05" >
			</activity>
			<leg mode="car">
			</leg>
			<activity type="home" x="39947.86633239394" y="149052.34664742445" >
			</activity>
		</plan>

	</person>

<!-- ====================================================================== -->

	<person id="p_1012">
		<plan selected="yes">
			<activity type="home" x="18494.776783111338" y="112900.14996909883" end_time="07:00:22" >
			</activity>
			<leg mode="car">
			</leg>
			<activity type="work" x="22597.052868057188" y="122148.42927413226" end_time="19:19:54" >
			</activity>
			<leg mode="car">
			</leg>
			<activity type="home" x="18494.776783111338" y="112900.14996909883" >
			</activity>
		</plan>

	</person>

<!-- ====================================================================== -->

	<person id="p_1013">
		<plan selected="yes">
			<activity type="home" x="32761.657593719086" y="124306.27612561165" end_time="08:50:44" >
			</activity>
			<leg mode="car">
			</leg>
			<activity type="work" x="60374.718503725184" y="132662.33781233782" end_time="16:36:24" >
			</activity>
			<leg mode="car">
			</leg>
			<activity type="home" x="32761.657593719086" y="124306.27612561165" >
			</activity>
		</plan>

	</person>

<!-- ====================================================================== -->

	<person id="p_1014">
		<plan selected="yes">
			<activity type="home" x="86422.27573020254" y="117092.70783306482" end_time="08:47:52" >
			</activity>
			<leg mode="car">
			</leg>
			<activity type="work" x="58348.534589035444" y="129135.8771527125" end_time="17:51:10" >
			</activity>
			<leg mode="car">
			</leg>
			<activity type="home" x="86422.27573020254" y="117092.70783306482" >
			</activity>
		</plan>

	</person>

<!-- ====================================================================== -->

	<person id="p_1015">
		<plan selected="yes">
			<activity type="home" x="31906.581670074243" y="134375.82853032678" end_time="07:03:55" >
			</activity>
			<leg mode="car">
			</leg>
			<activity type="work" x="13518.01843945029" y="124207.81170845123" end_time="21:42:03" >
			</activity>
			<leg mode="car">
			</leg>
			<activity type="home" x="31906.581670074243" y="134375.82853032678" >
			</activity>
		</plan>

	</person>

<!-- ====================================================================== -->

	<person id="p_1016">
		<plan selected="yes">
			<activity type="home" x="78376.93276428568" y="149768.18680126127" end_time="08:14:41" >
			</activity>
			<leg mode="car">
			</leg>
			<activity type="work" x="76530.30392770887" y="130725.84238267952" end_time="19:07:02" >
			</activity>
			<leg mode="car">
			</leg>
			<activity type="home" x="78376.93276428568" y="149768.18680126127" >
			</activity>
		</plan>

	</person>

<!-- ====================================================================== -->

	<person id="p_1017">
		<plan selected="yes">
			<activity type="home" x="86968.9652339222" y="140647.0168905498" end_time="07:55:25" >
			</activity>
			<leg mode="car">
			</leg>
			<activity type="work" x="13480.15895233966" y="148786.38696011045" end_time="16:43:16" >
			</activity>
			<leg mode="car">
			</leg>
			<activity type="home" x="86968.9652339222" y="140647.0168905498" >
			</activity>
		</plan>

	</person>

<!-- ====================================================================== -->

	<person id="p_1018">
		<plan selected="yes">
			<activity type="home" x="30695.46285364924" y="131160.7222797551" end_time="10:06:49" >
			</activity>
			<leg mode="car">
			</leg>
			<activity type="work" x="69502.01511173151" y="118494.46838554853" end_time="15:14:57" >
			</activity>
			<leg mode="car">
			</leg>
			<activity type="home" x="30695.46285364924" y="131160.7222797551" >
			</activity>
		</plan>

	</person>

<!-- ====================================================================== -->

	<person id="p_1019">
		<plan selected="yes">
			<activity type="home" x="50549.57028983027" y="121942.86663350622" end_time="08:21:23" >
			</activity>
			<leg mode="car">
			</leg>
			<activity type="work" x="40198.99813998636" y="121729.79655120129" end_time="15:55:45" >
			</activity>
			<leg mode="car">
			</leg>
			<activity type="home" x="50549.57028983027" y="121942.86663350622" >
			</activity>
		</plan>

	</person>

<!-- ====================================================================== -->

	<person id="p_102">
		<plan selected="yes">
			<activity type="home" x="59771.83470094999" y="136914.94768907188" end_time="08:16:51" >
			</activity>
			<leg mode="car">
			</leg>
			<activity type="work" x="10212.866857388653" y="145064.3455584655" end_time="21:24:21" >
			</activity>
			<leg mode="car">
			</leg>
			<activity type="home" x="59771.83470094999" y="136914.94768907188" >
			</activity>
		</plan>

	</person>

<!-- ====================================================================== -->

	<person id="p_1020">
		<plan selected="yes">
			<activity type="home" x="64908.85408803594" y="142178.6694959744" end_time="09:13:03" >
			</activity>
			<leg mode="car">
			</leg>
			<activity type="work" x="71215.99831957022" y="140692.290066996" end_time="19:00:02" >
			</activity>
			<leg mode="car">
			</leg>
			<activity type="home" x="64908.85408803594" y="142178.6694959744" >
			</activity>
		</plan>

	</person>

<!-- ====================================================================== -->

	<person id="p_1021">
		<plan selected="yes">
			<activity type="home" x="24659.57065803655" y="153940.12712319006" end_time="08:13:57" >
			</activity>
			<leg mode="car">
			</leg>
			<activity type="work" x="75128.42619201104" y="139375.99561061966" end_time="15:06:46" >
			</activity>
			<leg mode="car">
			</leg>
			<activity type="home" x="24659.57065803655" y="153940.12712319006" >
			</activity>
		</plan>

	</person>

<!-- ====================================================================== -->

	<person id="p_1022">
		<plan selected="yes">
			<activity type="home" x="18024.965335834135" y="141077.56783969808" end_time="07:25:34" >
			</activity>
			<leg mode="car">
			</leg>
			<activity type="work" x="78874.84118976792" y="137825.9305532269" end_time="24:06:19" >
			</activity>
			<leg mode="car">
			</leg>
			<activity type="home" x="18024.965335834135" y="141077.56783969808" >
			</activity>
		</plan>

	</person>

<!-- ====================================================================== -->

	<person id="p_1023">
		<plan selected="yes">
			<activity type="home" x="38760.023386953224" y="133386.97063615447" end_time="09:13:40" >
			</activity>
			<leg mode="car">
			</leg>
			<activity type="work" x="56259.1240139623" y="118135.35020971336" end_time="14:13:16" >
			</activity>
			<leg mode="car">
			</leg>
			<activity type="home" x="38760.023386953224" y="133386.97063615447" >
			</activity>
		</plan>

	</person>

<!-- ====================================================================== -->

	<person id="p_1024">
		<plan selected="yes">
			<activity type="home" x="45468.83577114807" y="128710.69824501075" end_time="09:23:28" >
			</activity>
			<leg mode="car">
			</leg>
			<activity type="work" x="64959.15716954921" y="136801.7905388321" end_time="16:18:15" >
			</activity>
			<leg mode="car">
			</leg>
			<activity type="home" x="45468.83577114807" y="128710.69824501075" >
			</activity>
		</plan>

	</person>

<!-- ====================================================================== -->

	<person id="p_1025">
		<plan selected="yes">
			<activity type="home" x="89370.18927151298" y="117060.68035286959" end_time="07:39:15" >
			</activity>
			<leg mode="car">
			</leg>
			<activity type="work" x="26546.77173129264" y="122600.28807329107" end_time="11:04:33" >
			</activity>
			<leg mode="car">
			</leg>
			<activity type="home" x="89370.18927151298" y="117060.68035286959" >
			</activity>
		</plan>

	</person>

<!-- ====================================================================== -->

	<person id="p_1026">
		<plan selected="yes">
			<activity type="home" x="66580.59994456297" y="142474.0363860124" end_time="07:25:05" >
			</activity>
			<leg mode="car">
			</leg>
			<activity type="work" x="57392.05635430761" y="152850.90904175973" end_time="19:55:28" >
			</activity>
			<leg mode="car">
			</leg>
			<activity type="home" x="66580.59994456297" y="142474.0363860124" >
			</activity>
		</plan>

	</person>

<!-- ====================================================================== -->

	<person id="p_1027">
		<plan selected="yes">
			<activity type="home" x="78323.76735678127" y="144367.23184359013" end_time="08:16:27" >
			</activity>
			<leg mode="car">
			</leg>
			<activity type="work" x="81850.04863810408" y="130818.7597629476" end_time="18:36:17" >
			</activity>
			<leg mode="car">
			</leg>
			<activity type="home" x="78323.76735678127" y="144367.23184359013" >
			</activity>
		</plan>

	</person>

<!-- ====================================================================== -->

	<person id="p_1028">
		<plan selected="yes">
			<activity type="home" x="21495.410988608062" y="144427.4534142396" end_time="06:43:00" >
			</activity>
			<leg mode="car">
			</leg>
			<activity type="work" x="31989.36692475502" y="148413.07452007872" end_time="21:05:10" >
			</activity>
			<leg mode="car">
			</leg>
			<activity type="home" x="21495.410988608062" y="144427.4534142396" >
			</activity>
		</plan>

	</person>

<!-- ====================================================================== -->

	<person id="p_1029">
		<plan selected="yes">
			<activity type="home" x="57508.028529159244" y="131515.01014939128" end_time="08:52:58" >
			</activity>
			<leg mode="car">
			</leg>
			<activity type="work" x="85525.97664319917" y="153301.9459664431" end_time="17:27:21" >
			</activity>
			<leg mode="car">
			</leg>
			<activity type="home" x="57508.028529159244" y="131515.01014939128" >
			</activity>
		</plan>

	</person>

<!-- ====================================================================== -->

	<person id="p_103">
		<plan selected="yes">
			<activity type="home" x="42290.98879484556" y="112214.1752534605" end_time="08:00:24" >
			</activity>
			<leg mode="car">
			</leg>
			<activity type="work" x="25365.08335640277" y="111047.45777753482" end_time="24:02:50" >
			</activity>
			<leg mode="car">
			</leg>
			<activity type="home" x="42290.98879484556" y="112214.1752534605" >
			</activity>
		</plan>

	</person>

<!-- ====================================================================== -->

	<person id="p_1030">
		<plan selected="yes">
			<activity type="home" x="41106.43305301162" y="149961.35276088625" end_time="06:53:25" >
			</activity>
			<leg mode="car">
			</leg>
			<activity type="work" x="62197.057922790824" y="139741.85708372496" end_time="21:41:03" >
			</activity>
			<leg mode="car">
			</leg>
			<activity type="home" x="41106.43305301162" y="149961.35276088625" >
			</activity>
		</plan>

	</person>

<!-- ====================================================================== -->

	<person id="p_1031">
		<plan selected="yes">
			<activity type="home" x="19833.60697119378" y="121836.64655682092" end_time="08:28:53" >
			</activity>
			<leg mode="car">
			</leg>
			<activity type="work" x="72537.94651597222" y="150487.06834090484" end_time="18:58:24" >
			</activity>
			<leg mode="car">
			</leg>
			<activity type="home" x="19833.60697119378" y="121836.64655682092" >
			</activity>
		</plan>

	</person>

<!-- ====================================================================== -->

	<person id="p_1032">
		<plan selected="yes">
			<activity type="home" x="77808.91878936962" y="145657.9122263146" end_time="08:08:01" >
			</activity>
			<leg mode="car">
			</leg>
			<activity type="work" x="87981.79910463248" y="148750.07071605668" end_time="17:14:35" >
			</activity>
			<leg mode="car">
			</leg>
			<activity type="home" x="77808.91878936962" y="145657.9122263146" >
			</activity>
		</plan>

	</person>

<!-- ====================================================================== -->

	<person id="p_1033">
		<plan selected="yes">
			<activity type="home" x="26553.07226816872" y="154403.09359910208" end_time="07:12:01" >
			</activity>
			<leg mode="car">
			</leg>
			<activity type="work" x="78422.84067864981" y="148393.10123750207" end_time="17:23:20" >
			</activity>
			<leg mode="car">
			</leg>
			<activity type="home" x="26553.07226816872" y="154403.09359910208" >
			</activity>
		</plan>

	</person>

<!-- ====================================================================== -->

	<person id="p_1034">
		<plan selected="yes">
			<activity type="home" x="10141.973301546303" y="120245.13371317204" end_time="08:51:51" >
			</activity>
			<leg mode="car">
			</leg>
			<activity type="work" x="46207.423576835" y="113328.34651393461" end_time="17:59:28" >
			</activity>
			<leg mode="car">
			</leg>
			<activity type="home" x="10141.973301546303" y="120245.13371317204" >
			</activity>
		</plan>

	</person>

<!-- ====================================================================== -->

	<person id="p_1035">
		<plan selected="yes">
			<activity type="home" x="38103.73325035496" y="147858.82910744625" end_time="08:04:06" >
			</activity>
			<leg mode="car">
			</leg>
			<activity type="work" x="18641.216120580673" y="154487.13889558543" end_time="20:52:44" >
			</activity>
			<leg mode="car">
			</leg>
			<activity type="home" x="38103.73325035496" y="147858.82910744625" >
			</activity>
		</plan>

	</person>

<!-- ====================================================================== -->

	<person id="p_1036">
		<plan selected="yes">
			<activity type="home" x="66357.36825889221" y="139299.65073324557" end_time="08:41:17" >
			</activity>
			<leg mode="car">
			</leg>
			<activity type="work" x="21694.53252538659" y="150256.8327411101" end_time="22:38:45" >
			</activity>
			<leg mode="car">
			</leg>
			<activity type="home" x="66357.36825889221" y="139299.65073324557" >
			</activity>
		</plan>

	</person>

<!-- ====================================================================== -->

	<person id="p_1037">
		<plan selected="yes">
			<activity type="home" x="26213.281329953075" y="117758.63290530126" end_time="07:20:13" >
			</activity>
			<leg mode="car">
			</leg>
			<activity type="work" x="10217.18397825327" y="116202.29820309234" end_time="17:18:04" >
			</activity>
			<leg mode="car">
			</leg>
			<activity type="home" x="26213.281329953075" y="117758.63290530126" >
			</activity>
		</plan>

	</person>

<!-- ====================================================================== -->

	<person id="p_1038">
		<plan selected="yes">
			<activity type="home" x="73953.80442533942" y="135937.87845670243" end_time="08:13:03" >
			</activity>
			<leg mode="car">
			</leg>
			<activity type="work" x="14446.663043508668" y="137922.47650634643" end_time="18:29:57" >
			</activity>
			<leg mode="car">
			</leg>
			<activity type="home" x="73953.80442533942" y="135937.87845670243" >
			</activity>
		</plan>

	</person>

<!-- ====================================================================== -->

	<person id="p_1039">
		<plan selected="yes">
			<activity type="home" x="31775.03558353473" y="113140.48026993843" end_time="09:25:18" >
			</activity>
			<leg mode="car">
			</leg>
			<activity type="work" x="19679.974727601817" y="130841.54213220411" end_time="19:35:53" >
			</activity>
			<leg mode="car">
			</leg>
			<activity type="home" x="31775.03558353473" y="113140.48026993843" >
			</activity>
		</plan>

	</person>

<!-- ====================================================================== -->

	<person id="p_104">
		<plan selected="yes">
			<activity type="home" x="11783.062055298684" y="144519.23048618968" end_time="08:38:57" >
			</activity>
			<leg mode="car">
			</leg>
			<activity type="work" x="16899.56364359127" y="110413.28478183413" end_time="21:08:58" >
			</activity>
			<leg mode="car">
			</leg>
			<activity type="home" x="11783.062055298684" y="144519.23048618968" >
			</activity>
		</plan>

	</person>

<!-- ====================================================================== -->

	<person id="p_1040">
		<plan selected="yes">
			<activity type="home" x="56187.746295639576" y="134635.9736102774" end_time="09:48:59" >
			</activity>
			<leg mode="car">
			</leg>
			<activity type="work" x="44137.80060115593" y="114040.1835123031" end_time="17:50:58" >
			</activity>
			<leg mode="car">
			</leg>
			<activity type="home" x="56187.746295639576" y="134635.9736102774" >
			</activity>
		</plan>

	</person>

<!-- ====================================================================== -->

	<person id="p_1041">
		<plan selected="yes">
			<activity type="home" x="24141.102951386456" y="123202.04395075975" end_time="09:33:47" >
			</activity>
			<leg mode="car">
			</leg>
			<activity type="work" x="36255.92365298052" y="138113.94921165105" end_time="12:18:36" >
			</activity>
			<leg mode="car">
			</leg>
			<activity type="home" x="24141.102951386456" y="123202.04395075975" >
			</activity>
		</plan>

	</person>

<!-- ====================================================================== -->

	<person id="p_1042">
		<plan selected="yes">
			<activity type="home" x="45460.783274824964" y="153469.4611999945" end_time="07:16:21" >
			</activity>
			<leg mode="car">
			</leg>
			<activity type="work" x="59916.96232222247" y="118525.51148813812" end_time="16:54:14" >
			</activity>
			<leg mode="car">
			</leg>
			<activity type="home" x="45460.783274824964" y="153469.4611999945" >
			</activity>
		</plan>

	</person>

<!-- ====================================================================== -->

	<person id="p_1043">
		<plan selected="yes">
			<activity type="home" x="33382.28734177236" y="126299.83657890557" end_time="08:06:47" >
			</activity>
			<leg mode="car">
			</leg>
			<activity type="work" x="36606.01588402093" y="135464.2641430596" end_time="19:33:09" >
			</activity>
			<leg mode="car">
			</leg>
			<activity type="home" x="33382.28734177236" y="126299.83657890557" >
			</activity>
		</plan>

	</person>

<!-- ====================================================================== -->

	<person id="p_1044">
		<plan selected="yes">
			<activity type="home" x="62986.20303985193" y="119906.23454796911" end_time="07:35:45" >
			</activity>
			<leg mode="car">
			</leg>
			<activity type="work" x="79293.31005259624" y="145290.76049563842" end_time="19:20:16" >
			</activity>
			<leg mode="car">
			</leg>
			<activity type="home" x="62986.20303985193" y="119906.23454796911" >
			</activity>
		</plan>

	</person>

<!-- ====================================================================== -->

	<person id="p_1045">
		<plan selected="yes">
			<activity type="home" x="28879.99041733788" y="150131.7244405289" end_time="08:56:22" >
			</activity>
			<leg mode="car">
			</leg>
			<activity type="work" x="48063.77570751997" y="124971.28616784111" end_time="14:48:32" >
			</activity>
			<leg mode="car">
			</leg>
			<activity type="home" x="28879.99041733788" y="150131.7244405289" >
			</activity>
		</plan>

	</person>

<!-- ====================================================================== -->

	<person id="p_1046">
		<plan selected="yes">
			<activity type="home" x="46050.33640063835" y="146522.0783245007" end_time="07:03:10" >
			</activity>
			<leg mode="car">
			</leg>
			<activity type="work" x="66633.41428926056" y="113958.26360757432" end_time="19:00:54" >
			</activity>
			<leg mode="car">
			</leg>
			<activity type="home" x="46050.33640063835" y="146522.0783245007" >
			</activity>
		</plan>

	</person>

<!-- ====================================================================== -->

	<person id="p_1047">
		<plan selected="yes">
			<activity type="home" x="58274.8454146691" y="133315.107740054" end_time="07:49:31" >
			</activity>
			<leg mode="car">
			</leg>
			<activity type="work" x="43903.55681276394" y="135375.38055205648" end_time="18:55:20" >
			</activity>
			<leg mode="car">
			</leg>
			<activity type="home" x="58274.8454146691" y="133315.107740054" >
			</activity>
		</plan>

	</person>

<!-- ====================================================================== -->

	<person id="p_1048">
		<plan selected="yes">
			<activity type="home" x="35132.86737901484" y="131042.30909122982" end_time="07:06:25" >
			</activity>
			<leg mode="car">
			</leg>
			<activity type="work" x="17510.060834193762" y="143255.99506419935" end_time="22:28:36" >
			</activity>
			<leg mode="car">
			</leg>
			<activity type="home" x="35132.86737901484" y="131042.30909122982" >
			</activity>
		</plan>

	</person>

<!-- ====================================================================== -->

	<person id="p_1049">
		<plan selected="yes">
			<activity type="home" x="77661.38503245777" y="153822.03132355592" end_time="08:55:31" >
			</activity>
			<leg mode="car">
			</leg>
			<activity type="work" x="20069.919411031406" y="134727.26549299897" end_time="21:03:26" >
			</activity>
			<leg mode="car">
			</leg>
			<activity type="home" x="77661.38503245777" y="153822.03132355592" >
			</activity>
		</plan>

	</person>

<!-- ====================================================================== -->

	<person id="p_105">
		<plan selected="yes">
			<activity type="home" x="21160.9076277664" y="142549.86194322444" end_time="07:13:42" >
			</activity>
			<leg mode="car">